---- qbsp / ericw-tools v0.18.1 ----
Input file: SingleMap.map
Output file: SingleMap.bsp

---- LoadMapFile ----
*** WARNING 06: No info_player_deathmatch entities in level
          336 faces
           56 brushes
           52 entities
           10 unique texnames
          174 texinfo

Opened WAD: wads/prototype_1_2.wad
Opened WAD: wads/START.WAD
Opened WAD: wads/rogue.wad
Processing hull 0...
---- Brush_LoadEntity ----
           44 brushes
          223 planes
---- CSGFaces ----
          264 brushfaces
          303 csgfaces
          288 mergedfaces
---- SolidBSP ----
          830 split nodes
          284 solid leafs
          547 empty leafs
            0 water leafs
            0 detail leafs
            0 detail illusionary leafs
            0 detail fence leafs
            0 illusionary visblocker leafs
         5920 leaffaces
         5718 nodefaces
---- Portalize ----
*** WARNING 12: New portal was clipped away in CutNodePortals_r near (125.329 539.206 -741.235)
          547 vis leafs
          547 vis clusters
         1899 vis portals
---- FillOutside ----
*** WARNING 10: Reached occupant at (-1783 -639 -483), no filling performed.
Leak file written to SingleMap.pts
---- MakeFaceEdges ----
---- GrowRegions ----
Processing hull 1...
Processing hull 2...
---- WriteBSPFile ----
Wrote SingleMap.bsp
          892 planes            17840
         7667 vertexes          92004
          902 nodes             21648
          171 texinfo            6840
         5798 faces            115960
         1632 clipnodes         13056
          620 leafs             17360
         6000 marksurfaces      12000
        23192 surfedges         92768
        13964 edges             55856
           12 textures          81112
              lightdata             0
              visdata               0
              entdata            4191

0.212 seconds elapsed
Peak memory usage: 18976352 (18.1M)
